units lj
dimension 3
boundary p p p

atom_style hybrid angle mdpd
neighbor 0.3 bin
neigh_modify delay 4 every 2
comm_modify vel yes

read_data system.data
Reading data file ...
  orthogonal box = (0.0000000 -25.000000 -25.000000) to (37.700000 25.000000 25.000000)
  reading atoms ...
  12000 atoms
  scanning bonds ...
  scanning angles ...
  reading bonds ...
  9000 bonds
  reading angles ...
  6000 angles
Finding 1-2 1-3 1-4 neighbors ...
     2 = max # of 1-2 neighbors
     1 = max # of 1-3 neighbors
     2 = max # of 1-4 neighbors
     3 = max # of special neighbors

region  water  cylinder x 0 0 6 INF INF
create_atoms 3 random 16000 2021 water
Created 16000 atoms

#fix 1 all property/atom d_meso/rho
#compute 10 all sph/rho/atom

group 1 type 1
3000 atoms in group 1
group 2 type 2
9000 atoms in group 2
group water type 3
16000 atoms in group water
group membrane type 1:2
12000 atoms in group membrane
group all union water membrane
28000 atoms in group all

group aa union 1 2 water
28000 atoms in group aa
set group aa sph/rho 6
Setting atom values ...
  28000 settings made for sph/rho

bond_style harmonic
bond_coeff 1 400 0.64
bond_coeff 2 400 0.64

angle_style harmonic
angle_coeff 1 100 160
angle_coeff 2 100 160

pair_style hybrid/overlay mdpd/rhosum mdpd 1.0 1.0 65689
pair_coeff  *  *   mdpd/rhosum  0.75

pair_coeff  1  1   mdpd  -19.0  25.0  12  1.0  0.75
pair_coeff  1  2   mdpd  -5.98  25.0  12  1.0  0.75
pair_coeff  1  3   mdpd  -32.18 25.0  12  1.0  0.75
pair_coeff  2  2   mdpd  -22.0  25.0  12  1.0  0.75
pair_coeff  2  3   mdpd  -27.0  25.0  12  1.0  0.75
pair_coeff  3  3   mdpd  -40.0  25.0  12  1.0  0.75

dump 20 all atom 100 min-l.lammpstrj

neigh_modify every 1 delay 0 check yes
min_style cg
minimize 0 0 1000 10000

CITE-CITE-CITE-CITE-CITE-CITE-CITE-CITE-CITE-CITE-CITE-CITE-CITE

Your simulation uses code contributions which should be cited:

- pair mdpd command:

@Article{ZLi2013_POF,
 author = {Li, Z. and Hu, G.H. and Wang, Z.L. and Ma Y.B. and Zhou, Z.W.},
 title = {Three dimensional flow structures in a moving droplet on substrate: a dissipative particle dynamics study},
 journal = {Physics of Fluids},
 year = {2013},
 volume = {25},
 pages = {072103}
}

CITE-CITE-CITE-CITE-CITE-CITE-CITE-CITE-CITE-CITE-CITE-CITE-CITE

  update every 1 steps, delay 0 steps, check yes
Step Temp E_pair E_mol TotEng Press
0            0    40.483196    5.1309802    45.614176    13.086209
Loop time of 87.1689 on 8 procs for 1000 steps with 28000 atoms

Minimization stats:
  Stopping criterion = max iterations
  Energy initial, next-to-last, final =
  Force two-norm initial, final = 64082.866 15229.943
  Force max component initial, final = 2475.0464 269.41823
  Final line search alpha, max atom move = 5.8306409e-07 0.00015708810
  Iterations, force evaluations = 1000 6340

fix         mvv     all mvv/dpd 0.65

compute             mythermo all temp
thermo              100
thermo_modify       temp mythermo
thermo_modify       flush yes

thermo_modify	 lost ignore lost/bond ignore

timestep 0.01

#dump 1 membrane atom 1000 membrane-big.lammpstrj
dump 2 all atom 100 all.lammpstrj
#dump 3 water atom 1000 water-big.lammpstrj

run 350000
Step Temp E_pair E_mol TotEng Press
1000            0   -6.7332432  0.030398097   -6.7028451  -0.51477409
Averages over the last 586 of 1172 rows, steps 59600 to 118100:
Temp E_pair E_mol TotEng Press
0.990336 -5.05535 0.279486 -3.29041 -0.0241374
