units 		          lj
dimension	          3
boundary	          p p p
neighbor	          0.3 bin
neigh_modify        every 1 check yes

atom_style	        mdpd

#create_box          1 mdpd

#lattice             fcc 7.7
#region     tube     cylinder z 0 0 v_Radius INF INF
#create_atoms        1 region tube

read_data           initial_perturbed_14_80.data
Reading data file ...
  orthogonal box = (-42 -42 0) to (42 42 196.34954)
  reading atoms ...
  1179775 atoms

pair_style          hybrid/overlay mdpd/rhosum mdpd 1.0 1.0 9872598
pair_coeff          1 1 mdpd/rhosum  0.75
pair_coeff          1 1 mdpd         -80 25 18.0 1.0 0.75
mass                1 1

compute             mythermo all temp
thermo              500
thermo_modify       temp mythermo
thermo_modify       flush yes

velocity            all create 1.0 2093 loop local dist gaussian
comm_modify         vel yes
fix         mvv     all mvv/dpd 0.65

timestep            0.01

dump        mydump  all atom 100 thread_14_80.lammpstrj
dump_modify mydump scale no

dump force all custom 100 dump.force_14_80 id fx fy fz
dump vel all custom 100 dump.vel_14_80 id vx vy vz
#dump full all custom 100 dump.all id x y z vx vy vz fx fy fz

run                 70000

CITE-CITE-CITE-CITE-CITE-CITE-CITE-CITE-CITE-CITE-CITE-CITE-CITE

Your simulation uses code contributions which should be cited:

- pair mdpd command:

@Article{ZLi2013_POF,
 author = {Li, Z. and Hu, G.H. and Wang, Z.L. and Ma Y.B. and Zhou, Z.W.},
 title = {Three dimensional flow structures in a moving droplet on substrate: a dissipative particle dynamics study},
 journal = {Physics of Fluids},
 year = {2013},
 volume = {25},
 pages = {072103}
}

CITE-CITE-CITE-CITE-CITE-CITE-CITE-CITE-CITE-CITE-CITE-CITE-CITE

Generated 0 of 0 mixed pair_coeff terms from geometric mixing rule
  update every 1 steps, delay 10 steps, check yes
Step          Temp          E_pair         E_mol          TotEng         Press
0   1             -10.586095      0             -9.0860966      7.7802975
Averages over the last 71 of 141 rows, steps 35000 to 70000:
Temp E_pair E_mol TotEng Press
0.966253 -16.2657 0 -14.8163 -0.126644
Loop time of 30365.8 on 12 procs for 70000 steps with 1179775 atoms
