units 		          lj
dimension	          3
boundary	          p p p
neighbor	          0.3 bin
neigh_modify        every 1 check yes

atom_style	        mdpd

#variable Radius equal 12.0
#variable WaveNumber equal 100/55
#variable WaveLength equal 2*PI*v_Radius*v_WaveNumber

#create_box          1 mdpd

#lattice             fcc 7.7
#region     tube     cylinder z 0 0 v_Radius INF INF
#create_atoms        1 region tube

read_data           initial_perturbed_14.data
Reading data file ...
  orthogonal box = (-42.000000 -42.000000 0.0000000) to (42.000000 42.000000 154.32385)
  reading atoms ...
  704483 atoms

pair_style          hybrid/overlay mdpd/rhosum mdpd 1.0 1.0 9872598
pair_coeff          1 1 mdpd/rhosum  0.75
pair_coeff          1 1 mdpd         -50 25 18.0 1.0 0.75
mass                1 1

compute             mythermo all temp
thermo              100
thermo_modify       temp mythermo
thermo_modify       flush yes

velocity            all create 1.0 2093 loop local dist gaussian
comm_modify         vel yes
fix         mvv     all mvv/dpd 0.65

timestep            0.01

dump        mydump  all atom 100 thread_14.lammpstrj
dump_modify mydump scale no

dump force all custom 100 dump.force_14 id fx fy fz
dump vel all custom 100 dump.vel_14 id vx vy vz
#dump full all custom 100 dump.all id x y z vx vy vz fx fy fz

run                 70000
  update every 1 steps, delay 10 steps, check yes
Step Temp E_pair E_mol TotEng Press
0            1   -9.8420058            0   -8.3420079  -0.93526778
Averages over the last 351 of 701 rows, steps 35000 to 70000:
Temp E_pair E_mol TotEng Press
0.981773 -9.23248 0 -7.75982 -0.0641833
Loop time of 24856.9 on 14 procs for 70000 steps with 704483 atoms

Please see the log.cite file for references relevant to this simulation
