units 		          lj
dimension	          3
boundary	          p p p
neighbor	          0.3 bin
neigh_modify        every 1 check yes

atom_style	        mdpd

#create_box          1 mdpd

#lattice             fcc 7.7
#region     tube     cylinder z 0 0 v_Radius INF INF
#create_atoms        1 region tube

read_data           initial_perturbed_14_50.data
Reading data file ...
  orthogonal box = (-42 -42 0) to (42 42 154.32385)
  reading atoms ...
  704483 atoms

pair_style          hybrid/overlay mdpd/rhosum mdpd 1.0 1.0 12112022
pair_coeff          1 1 mdpd/rhosum  0.75
pair_coeff          1 1 mdpd         -50 25 18.0 1.0 0.75
mass                1 1

compute             mythermo all temp
thermo              500
thermo_modify       temp mythermo
thermo_modify       flush yes

velocity            all create 1.0 2093 loop local dist gaussian
comm_modify         vel yes
fix         mvv     all mvv/dpd 0.65

timestep            0.01

dump        mydump  all atom 100 thread_14_50_2.lammpstrj
dump_modify mydump scale no

dump force all custom 100 dump.force_14_50_2 id fx fy fz
dump vel all custom 100 dump.vel_14_50_2 id vx vy vz
#dump full all custom 100 dump.all id x y z vx vy vz fx fy fz

run                 60000

CITE-CITE-CITE-CITE-CITE-CITE-CITE-CITE-CITE-CITE-CITE-CITE-CITE

Your simulation uses code contributions which should be cited:

- pair mdpd command:

@Article{ZLi2013_POF,
 author = {Li, Z. and Hu, G.H. and Wang, Z.L. and Ma Y.B. and Zhou, Z.W.},
 title = {Three dimensional flow structures in a moving droplet on substrate: a dissipative particle dynamics study},
 journal = {Physics of Fluids},
 year = {2013},
 volume = {25},
 pages = {072103}
}

CITE-CITE-CITE-CITE-CITE-CITE-CITE-CITE-CITE-CITE-CITE-CITE-CITE

Generated 0 of 0 mixed pair_coeff terms from geometric mixing rule
  update every 1 steps, delay 10 steps, check yes
Step          Temp          E_pair         E_mol          TotEng         Press
0   1             -6.1714723      0             -4.6714745      3.4245813
Averages over the last 61 of 121 rows, steps 30000 to 60000:
Temp E_pair E_mol TotEng Press
0.980011 -9.42429 0 -7.95427 -0.063001
Loop time of 13425 on 12 procs for 60000 steps with 704483 atoms
